/*--------------------------------*- C++ -*----------------------------------*\
| =========                 |                                                 |
| \\      /  F ield         | foam-extend: Open Source CFD                    |
|  \\    /   O peration     | Version:     4.1                                |
|   \\  /    A nd           | Web:         http://www.foam-extend.org         |
|    \\/     M anipulation  |                                                 |
\*---------------------------------------------------------------------------*/
FoamFile
{
    version     2.0;
    format      ascii;
    class       dictionary;
    location    "system";
    object      fvSchemes;
}
// * * * * * * * * * * * * * * * * * * * * * * * * * * * * * * * * * * * * * //

ddtSchemes
{
    default         Euler;
}

gradSchemes
{
    default         Gauss linear;
}

divSchemes
{
    default         none;
    div(phi,U)      Gauss deferredCorrection Minmod;
    div(phid,p)     Gauss deferredCorrection Minmod;
    div(phi,T)      Gauss deferredCorrection Minmod;
    
    div(phi,e)      Gauss vanLeerDC; //upwind;

    div((muEff*dev2(T(grad(U))))) Gauss linear;

    div((phi|interpolate(rho)),p) Gauss linear;
}

laplacianSchemes
{
    default Gauss linear corrected;
}

interpolationSchemes
{
    default linear;
    upwindRho Minmod phi;
    // upwindPsi upwind phi;
    
    // interpolate(rho) linear;
    // interpolate(rAU) linear;
    // interpolate(U) linear;
}

snGradSchemes
{
    default         corrected;
}


// ************************************************************************* //
