/*--------------------------------*- C++ -*----------------------------------*\
| =========                 |                                                 |
| \\      /  F ield         | foam-extend: Open Source CFD                    |
|  \\    /   O peration     | Version:     4.1                                |
|   \\  /    A nd           | Web:         http://www.foam-extend.org         |
|    \\/     M anipulation  |                                                 |
\*---------------------------------------------------------------------------*/
FoamFile
{
    version     2.0;
    format      ascii;
    class       dictionary;
    location    "system";
    object      fvSolution;
}
// * * * * * * * * * * * * * * * * * * * * * * * * * * * * * * * * * * * * * //

solvers
{
    "p.*"
    {
        solver          smoothSolver;
        smoother        symGaussSeidel;
        tolerance       1e-08;
        relTol          1e-3;
    }

    "(U|e|T).*"
    {
        $p;
        tolerance       1e-08;
        relTol          1e-3;
    }

    "rho.*"
    {
        solver          PCG;
        preconditioner  DIC;
        tolerance       1e-08;
        relTol          0;
    }
}

PIMPLE
{
    nOuterCorrectors 20;
    nCorrectors      2;
    nNonOrthogonalCorrectors 0;
}

relaxationFactors
{
    U       0.9;
    UFinal  0.9;
    T       0.9;
    TFinal  0.9;
    
    e       1;
    eFinal  1;

    p 0.5;
}


// ************************************************************************* //
